!- Windows Line endings 

Version,
    22.1;                     !- Version Identifier

SimulationControl,
    Yes,                      !- Do Zone Sizing Calculation
    Yes,                      !- Do System Sizing Calculation
    No,                       !- Do Plant Sizing Calculation
    No,                       !- Run Simulation for Sizing Periods
    Yes,                      !- Run Simulation for Weather File Run Periods
    No,                       !- Do HVAC Sizing Simulation for Sizing Periods
    1;                        !- Maximum Number of HVAC Sizing Simulation Passes

Building,
    Building,                 !- Name
    30,                       !- North Axis
    City,                     !- Terrain
    0.04,                     !- Loads Convergence Tolerance Value
    0.4,                      !- Temperature Convergence Tolerance Value
    FullExterior,             !- Solar Distribution
    100,                      !- Maximum Number of Warmup Days
    6;                        !- Minimum Number of Warmup Days

SurfaceConvectionAlgorithm:Inside,
    TARP;                     !- Algorithm

SurfaceConvectionAlgorithm:Outside,
    TARP;                     !- Algorithm

HeatBalanceAlgorithm,
    ConductionTransferFunction;    !- Algorithm

ZoneAirContaminantBalance,
    Yes,                      !- Carbon Dioxide Concentration
    Outdoor CO2 Schedule;     !- Outdoor Carbon Dioxide Schedule Name

ZoneCapacitanceMultiplier:ResearchSpecial,
    capacity,                 !- Name
    ,                         !- Zone or ZoneList Name
    25,                       !- Temperature Capacity Multiplier
    1,                        !- Humidity Capacity Multiplier
    1,                        !- Carbon Dioxide Capacity Multiplier
    1;                        !- Generic Contaminant Capacity Multiplier

Timestep,
    4;                        !- Number of Timesteps per Hour

Site:Location,
    Selbu_TD_NOR Design_Conditions,    !- Name
    63.22,                    !- Latitude
    11.01,                    !- Longitude
    1,                        !- Time Zone
    161.6;                    !- Elevation

SizingPeriod:DesignDay,
    Selbu Ann Htg 99.6% Condns DB,    !- Name
    1,                        !- Month
    21,                       !- Day of Month
    WinterDesignDay,          !- Day Type
    -19.5,                    !- Maximum DryBulb Temperature
    0,                        !- Daily DryBulb Temperature Range
    DefaultMultipliers,       !- DryBulb Temperature Range Modifier Type
    ,                         !- DryBulb Temperature Range Modifier Day Schedule Name
    Wetbulb,                  !- Humidity Condition Type
    -19.5,                    !- Wetbulb or DewPoint at Maximum DryBulb
    ,                         !- Humidity Condition Day Schedule Name
    ,                         !- Humidity Ratio at Maximum DryBulb
    ,                         !- Enthalpy at Maximum DryBulb
    ,                         !- Daily WetBulb Temperature Range
    99399,                    !- Barometric Pressure
    1,                        !- Wind Speed
    150,                      !- Wind Direction
    No,                       !- Rain Indicator
    No,                       !- Snow Indicator
    No,                       !- Daylight Saving Time Indicator
    ASHRAEClearSky,           !- Solar Model Indicator
    ,                         !- Beam Solar Day Schedule Name
    ,                         !- Diffuse Solar Day Schedule Name
    ,                         !- ASHRAE Clear Sky Optical Depth for Beam Irradiance taub
    ,                         !- ASHRAE Clear Sky Optical Depth for Diffuse Irradiance taud
    0;                        !- Sky Clearness

SizingPeriod:DesignDay,
    Selbu July .4% Condns DB=>MCWB,    !- Name
    7,                        !- Month
    21,                       !- Day of Month
    SummerDesignDay,          !- Day Type
    30.6,                     !- Maximum DryBulb Temperature
    9.4,                      !- Daily DryBulb Temperature Range
    DefaultMultipliers,       !- DryBulb Temperature Range Modifier Type
    ,                         !- DryBulb Temperature Range Modifier Day Schedule Name
    Wetbulb,                  !- Humidity Condition Type
    19.3,                     !- Wetbulb or DewPoint at Maximum DryBulb
    ,                         !- Humidity Condition Day Schedule Name
    ,                         !- Humidity Ratio at Maximum DryBulb
    ,                         !- Enthalpy at Maximum DryBulb
    ,                         !- Daily WetBulb Temperature Range
    99399,                    !- Barometric Pressure
    1.8,                      !- Wind Speed
    300,                      !- Wind Direction
    No,                       !- Rain Indicator
    No,                       !- Snow Indicator
    No,                       !- Daylight Saving Time Indicator
    ASHRAETau,                !- Solar Model Indicator
    ,                         !- Beam Solar Day Schedule Name
    ,                         !- Diffuse Solar Day Schedule Name
    0.355,                    !- ASHRAE Clear Sky Optical Depth for Beam Irradiance taub
    2.458;                    !- ASHRAE Clear Sky Optical Depth for Diffuse Irradiance taud

RunPeriod,
    Run Period 1,             !- Name
    1,                        !- Begin Month
    1,                        !- Begin Day of Month
    ,                         !- Begin Year
    12,                       !- End Month
    31,                       !- End Day of Month
    ,                         !- End Year
    Sunday,                   !- Day of Week for Start Day
    Yes,                      !- Use Weather File Holidays and Special Days
    Yes,                      !- Use Weather File Daylight Saving Period
    No,                       !- Apply Weekend Holiday Rule
    Yes,                      !- Use Weather File Rain Indicators
    Yes,                      !- Use Weather File Snow Indicators
    No;                       !- Treat Weather as Actual

RUNPERIODCONTROL:SPECIALDAYS,
    H7,                       !- Name
    25-Jan,                   !- Start Date
    1,                        !- Duration
    Holiday;                  !- Special Day Type

RUNPERIODCONTROL:SPECIALDAYS,
    H10,                      !- Name
    2-Feb,                    !- Start Date
    1,                        !- Duration
    Holiday;                  !- Special Day Type

RUNPERIODCONTROL:SPECIALDAYS,
    H14,                      !- Name
    16-Feb,                   !- Start Date
    1,                        !- Duration
    Holiday;                  !- Special Day Type

RUNPERIODCONTROL:SPECIALDAYS,
    H15,                      !- Name
    23-Feb,                   !- Start Date
    1,                        !- Duration
    Holiday;                  !- Special Day Type

RUNPERIODCONTROL:SPECIALDAYS,
    H18,                      !- Name
    7-Mar,                    !- Start Date
    1,                        !- Duration
    Holiday;                  !- Special Day Type

RUNPERIODCONTROL:SPECIALDAYS,
    H25,                      !- Name
    31-Mar,                   !- Start Date
    1,                        !- Duration
    Holiday;                  !- Special Day Type

RUNPERIODCONTROL:SPECIALDAYS,
    H28,                      !- Name
    11-Apr,                   !- Start Date
    1,                        !- Duration
    Holiday;                  !- Special Day Type

RUNPERIODCONTROL:SPECIALDAYS,
    H31,                      !- Name
    21-Apr,                   !- Start Date
    1,                        !- Duration
    Holiday;                  !- Special Day Type

RUNPERIODCONTROL:SPECIALDAYS,
    H34,                      !- Name
    29-Apr,                   !- Start Date
    1,                        !- Duration
    Holiday;                  !- Special Day Type

RUNPERIODCONTROL:SPECIALDAYS,
    H35,                      !- Name
    2-May,                    !- Start Date
    1,                        !- Duration
    Holiday;                  !- Special Day Type

RUNPERIODCONTROL:SPECIALDAYS,
    H38,                      !- Name
    10-May,                   !- Start Date
    1,                        !- Duration
    Holiday;                  !- Special Day Type

RUNPERIODCONTROL:SPECIALDAYS,
    H39,                      !- Name
    17-May,                   !- Start Date
    1,                        !- Duration
    Holiday;                  !- Special Day Type

RUNPERIODCONTROL:SPECIALDAYS,
    H54,                      !- Name
    1-Jul,                    !- Start Date
    1,                        !- Duration
    Holiday;                  !- Special Day Type

RUNPERIODCONTROL:SPECIALDAYS,
    H55,                      !- Name
    11-Jul,                   !- Start Date
    1,                        !- Duration
    Holiday;                  !- Special Day Type

RUNPERIODCONTROL:SPECIALDAYS,
    H67,                      !- Name
    16-Aug,                   !- Start Date
    1,                        !- Duration
    Holiday;                  !- Special Day Type

RUNPERIODCONTROL:SPECIALDAYS,
    H68,                      !- Name
    19-Aug,                   !- Start Date
    1,                        !- Duration
    Holiday;                  !- Special Day Type

RUNPERIODCONTROL:SPECIALDAYS,
    H81,                      !- Name
    6-Oct,                    !- Start Date
    1,                        !- Duration
    Holiday;                  !- Special Day Type

RUNPERIODCONTROL:SPECIALDAYS,
    H82,                      !- Name
    7-Oct,                    !- Start Date
    1,                        !- Duration
    Holiday;                  !- Special Day Type

RUNPERIODCONTROL:SPECIALDAYS,
    H84,                      !- Name
    27-Oct,                   !- Start Date
    1,                        !- Duration
    Holiday;                  !- Special Day Type

RUNPERIODCONTROL:SPECIALDAYS,
    H85,                      !- Name
    28-Oct,                   !- Start Date
    1,                        !- Duration
    Holiday;                  !- Special Day Type

RUNPERIODCONTROL:SPECIALDAYS,
    H89,                      !- Name
    10-Nov,                   !- Start Date
    1,                        !- Duration
    Holiday;                  !- Special Day Type

RUNPERIODCONTROL:SPECIALDAYS,
    H92,                      !- Name
    2-Dec,                    !- Start Date
    1,                        !- Duration
    Holiday;                  !- Special Day Type

RUNPERIODCONTROL:SPECIALDAYS,
    H94,                      !- Name
    14-Dec,                   !- Start Date
    1,                        !- Duration
    Holiday;                  !- Special Day Type

RUNPERIODCONTROL:SPECIALDAYS,
    H98,                      !- Name
    27-Dec,                   !- Start Date
    1,                        !- Duration
    Holiday;                  !- Special Day Type

RUNPERIODCONTROL:SPECIALDAYS,
    H99,                      !- Name
    29-Dec,                   !- Start Date
    1,                        !- Duration
    Holiday;                  !- Special Day Type

ScheduleTypeLimits,
    obFMU Fraction,           !- Name
    0,                        !- Lower Limit Value
    1,                        !- Upper Limit Value
    CONTINUOUS;               !- Numeric Type

ScheduleTypeLimits,
    obFMU Any Number;         !- Name

ScheduleTypeLimits,
    Any Number;               !- Name

ScheduleTypeLimits,
    Fraction,                 !- Name
    -1,                       !- Lower Limit Value
    1,                        !- Upper Limit Value
    CONTINUOUS;               !- Numeric Type

ScheduleTypeLimits,
    Temperature,              !- Name
    -60,                      !- Lower Limit Value
    200,                      !- Upper Limit Value
    CONTINUOUS,               !- Numeric Type
    Temperature;              !- Unit Type

ScheduleTypeLimits,
    Control Type,             !- Name
    0,                        !- Lower Limit Value
    4,                        !- Upper Limit Value
    DISCRETE;                 !- Numeric Type

ScheduleTypeLimits,
    On/Off,                   !- Name
    0,                        !- Lower Limit Value
    1,                        !- Upper Limit Value
    DISCRETE;                 !- Numeric Type

ScheduleTypeLimits,
    HVACTemplate Any Number;    !- Name

Schedule:Compact,
    Outdoor CO2 Schedule,     !- Name
    Any Number,               !- Schedule Type Limits Name
    Through: 12/31,           !- Field 1
    For: AllDays,             !- Field 2
    Until: 24:00,             !- Field 3
    400.0;                    !- Field 4

Schedule:Compact,
    TWO,                      !- Name
    Any Number,               !- Schedule Type Limits Name
    Through: 12/31,           !- Field 1
    For: AllDays,             !- Field 2
    Until: 24:00,             !- Field 3
    2;                        !- Field 4

Schedule:Compact,
    THREE,                    !- Name
    Any Number,               !- Schedule Type Limits Name
    Through: 12/31,           !- Field 1
    For: AllDays,             !- Field 2
    Until: 24:00,             !- Field 3
    3;                        !- Field 4

Schedule:Compact,
    FOUR,                     !- Name
    Any Number,               !- Schedule Type Limits Name
    Through: 12/31,           !- Field 1
    For: AllDays,             !- Field 2
    Until: 24:00,             !- Field 3
    4;                        !- Field 4

Schedule:Compact,
    ShadeTransSch,            !- Name
    Fraction,                 !- Schedule Type Limits Name
    Through: 12/31,           !- Field 1
    For: AllDays,             !- Field 2
    Until: 24:00,             !- Field 3
    0.0;                      !- Field 4

Schedule:Compact,
    Activity Sch,             !- Name
    Any Number,               !- Schedule Type Limits Name
    Through: 12/31,           !- Field 1
    For: AllDays,             !- Field 2
    Until: 24:00,             !- Field 3
    131.8;                    !- Field 4

Schedule:Compact,
    BLDG Sch   1,             !- Name
    Any Number,               !- Schedule Type Limits Name
    Through: 12/31,           !- Field 1
    For: Weekdays SummerDesignDay WinterDesignDay,    !- Field 2
    Until: 6:00,              !- Field 3
    0.0,                      !- Field 4
    Until: 7:00,              !- Field 5
    0.1,                      !- Field 6
    Until: 8:00,              !- Field 7
    0.5,                      !- Field 8
    Until: 12:00,             !- Field 9
    1.0,                      !- Field 10
    Until: 13:00,             !- Field 11
    0.5,                      !- Field 12
    Until: 16:00,             !- Field 13
    1.0,                      !- Field 14
    Until: 17:00,             !- Field 15
    0.5,                      !- Field 16
    Until: 18:00,             !- Field 17
    0.1,                      !- Field 18
    Until: 24:00,             !- Field 19
    0.0,                      !- Field 20
    For: AllOtherDays,        !- Field 21
    Until: 24:00,             !- Field 22
    0.0;                      !- Field 23

Schedule:Compact,
    BLDG Sch   2,             !- Name
    Any Number,               !- Schedule Type Limits Name
    Through: 12/31,           !- Field 1
    For: Weekdays SummerDesignDay WinterDesignDay,    !- Field 2
    Until: 8:00,              !- Field 3
    0.0,                      !- Field 4
    Until: 18:00,             !- Field 5
    1.0,                      !- Field 6
    Until: 24:00,             !- Field 7
    0.0,                      !- Field 8
    For: AllOtherDays,        !- Field 9
    Until: 24:00,             !- Field 10
    0.0;                      !- Field 11

Schedule:Compact,
    BLDG Sch   3,             !- Name
    Any Number,               !- Schedule Type Limits Name
    Through: 12/31,           !- Field 1
    For: Weekdays SummerDesignDay WinterDesignDay,    !- Field 2
    Until: 6:00,              !- Field 3
    0.05,                     !- Field 4
    Until: 7:00,              !- Field 5
    0.2,                      !- Field 6
    Until: 18:00,             !- Field 7
    1.0,                      !- Field 8
    Until: 19:00,             !- Field 9
    0.5,                      !- Field 10
    Until: 24:00,             !- Field 11
    0.05,                     !- Field 12
    For: AllOtherDays,        !- Field 13
    Until: 24:00,             !- Field 14
    0.05;                     !- Field 15

Schedule:Compact,
    BLDGSch3_onoff,           !- Name
    Any Number,               !- Schedule Type Limits Name
    Through: 12/31,           !- Field 1
    For: Weekdays SummerDesignDay WinterDesignDay,    !- Field 2
    Until: 7:00,              !- Field 3
    0,                        !- Field 4
    Until: 21:00,             !- Field 5
    1,                        !- Field 6
    Until: 24:00,             !- Field 7
    0,                        !- Field 8
    For: AllOtherDays,        !- Field 9
    Until: 24:00,             !- Field 10
    0;                        !- Field 11

Schedule:Compact,
    ON,                       !- Name
    Fraction,                 !- Schedule Type Limits Name
    Through: 12/31,           !- Field 1
    For: AllDays,             !- Field 2
    Until: 24:00,             !- Field 3
    1.0;                      !- Field 4

Schedule:Compact,
    CW Loop Temp Schedule,    !- Name
    Temperature,              !- Schedule Type Limits Name
    Through: 12/31,           !- Field 1
    For: AllDays,             !- Field 2
    Until: 24:00,             !- Field 3
    6.67;                     !- Field 4

Schedule:Compact,
    HW Loop Temp Schedule,    !- Name
    Temperature,              !- Schedule Type Limits Name
    Through: 12/31,           !- Field 1
    For: AllDays,             !- Field 2
    Until: 24:00,             !- Field 3
    60.0;                     !- Field 4

Schedule:Compact,
    Heating Setpoints,        !- Name
    Temperature,              !- Schedule Type Limits Name
    Through: 12/31,           !- Field 1
    For: AllDays,             !- Field 2
    Until: 7:00,              !- Field 3
    19,                       !- Field 4
    Until: 19:00,             !- Field 5
    21,                       !- Field 6
    Until: 24:00,             !- Field 7
    19;                       !- Field 8

Schedule:Compact,
    Cooling Setpoints,        !- Name
    Temperature,              !- Schedule Type Limits Name
    Through: 12/31,           !- Field 1
    For: AllDays,             !- Field 2
    Until: 6:00,              !- Field 3
    30.0,                     !- Field 4
    Until: 19:00,             !- Field 5
    24.0,                     !- Field 6
    Until: 24:00,             !- Field 7
    30.0;                     !- Field 8

Schedule:Compact,
    Zone Control Type Sched,    !- Name
    Control Type,             !- Schedule Type Limits Name
    Through: 3/31,            !- Field 1
    For: AllDays,             !- Field 2
    Until: 24:00,             !- Field 3
    1.0,                      !- Field 4
    Through: 9/30,            !- Field 5
    For: AllDays,             !- Field 6
    Until: 24:00,             !- Field 7
    2.0,                      !- Field 8
    Through: 12/31,           !- Field 9
    For: AllDays,             !- Field 10
    Until: 24:00,             !- Field 11
    1.0;                      !- Field 12

Schedule:Compact,
    HVACTemplate-Always 4,    !- Name
    Any Number,               !- Schedule Type Limits Name
    Through: 12/31,           !- Field 1
    For: AllDays,             !- Field 2
    Until: 24:00,             !- Field 3
    4;                        !- Field 4

Schedule:Compact,
    UnitVentMinOA,            !- Name
    Any Number,               !- Schedule Type Limits Name
    Through: 12/31,           !- Field 1
    For: AllDays,             !- Field 2
    Until: 24:00,             !- Field 3
    0.0;                      !- Field 4

Schedule:Compact,
    UnitVentMaxOA,            !- Name
    Any Number,               !- Schedule Type Limits Name
    Through: 12/31,           !- Field 1
    For: AllDays,             !- Field 2
    Until: 24:00,             !- Field 3
    1.0;                      !- Field 4

Schedule:Compact,
    HeatExchangerAvailSch,    !- Name
    Any Number,               !- Schedule Type Limits Name
    Through: 12/31,           !- Field 1
    For: AllDays,             !- Field 2
    Until: 24:00,             !- Field 3
    1;                        !- Field 4

Schedule:Compact,
    Hybrid Control Mode Schedule,    !- Name
    Control Type,             !- Schedule Type Limits Name
    Through: 12/31,           !- Field 1
    For: AllDays,             !- Field 2
    Until:  7:00,             !- Field 3
    0,                        !- Field 4
    Until: 17:00,             !- Field 5
    1,                        !- Field 6
    Until: 18:00,             !- Field 7
    1,                        !- Field 8
    Until: 19:00,             !- Field 9
    1,                        !- Field 10
    Until: 24:00,             !- Field 11
    1;                        !- Field 12

Schedule:Compact,
    Outdoor air Schedule,     !- Name
    Any Number,               !- Schedule Type Limits Name
    Through: 12/31,           !- Field 1
    For: AllDays,             !- Field 2
    Until:  7:00,             !- Field 3
    2.0,                      !- Field 4
    Until: 19:00,             !- Field 5
    2.0,                      !- Field 6
    Until: 24:00,             !- Field 7
    2.0;                      !- Field 8

Schedule:Compact,
    SimpleControlTypeSch,     !- Name
    On/Off,                   !- Schedule Type Limits Name
    Through: 12/31,           !- Field 1
    For: AllDays,             !- Field 2
    Until:  7:00,             !- Field 3
    0.0,                      !- Field 4
    Until: 19:00,             !- Field 5
    1.0,                      !- Field 6
    Until: 24:00,             !- Field 7
    0.0;                      !- Field 8

Schedule:Compact,
    NUM45,                    !- Name
    Any Number,               !- Schedule Type Limits Name
    Through: 12/31,           !- Field 1
    For: AllDays,             !- Field 2
    Until: 24:00,             !- Field 3
    45;                       !- Field 4

Schedule:Compact,
    TstWeek,                  !- Name
    Any Number,               !- Schedule Type Limits Name
    Through: 12/31,           !- Field 1
    For: Sunday,              !- Field 2
    Until: 24:00,             !- Field 3
    0,                        !- Field 4
    For: Monday,              !- Field 5
    Until: 24:00,             !- Field 6
    1,                        !- Field 7
    For: Tuesday,             !- Field 8
    Until: 24:00,             !- Field 9
    2,                        !- Field 10
    For: Wednesday,           !- Field 11
    Until: 24:00,             !- Field 12
    3,                        !- Field 13
    For: Thursday,            !- Field 14
    Until: 24:00,             !- Field 15
    4,                        !- Field 16
    For: Friday,              !- Field 17
    Until: 24:00,             !- Field 18
    5,                        !- Field 19
    For: Saturday,            !- Field 20
    Until: 24:00,             !- Field 21
    6,                        !- Field 22
    For: Holiday,             !- Field 23
    Until: 24:00,             !- Field 24
    7;                        !- Field 25

Schedule:Compact,
    HOLIDAY_ON_OFF,           !- Name
    Fraction,                 !- Schedule Type Limits Name
    Through: 12/31,           !- Field 1
    For: AllDays,             !- Field 2
    Until: 24:00,             !- Field 3
    1.0;                      !- Field 4

Schedule:Compact,
    OCC_ON_OFF,               !- Name
    Fraction,                 !- Schedule Type Limits Name
    Through: 12/31,           !- Field 1
    For: AllDays,             !- Field 2
    Until: 24:00,             !- Field 3
    1.0;                      !- Field 4

Schedule:Compact,
    ON_at12,                  !- Name
    Fraction,                 !- Schedule Type Limits Name
    Through: 12/31,           !- Field 1
    For: AllDays,             !- Field 2
    Until: 12:00,             !- Field 3
    0,                        !- Field 4
    Until: 12:30,             !- Field 5
    1,                        !- Field 6
    Until: 24:00,             !- Field 7
    0;                        !- Field 8

Schedule:Compact,
    notOCC_ON_OFF,            !- Name
    Fraction,                 !- Schedule Type Limits Name
    Through: 12/31,           !- Field 1
    For: AllDays,             !- Field 2
    Until: 24:00,             !- Field 3
    1.0;                      !- Field 4

Schedule:Compact,
    HVACTemplate-Always 1,    !- Name
    HVACTemplate Any Number,    !- Schedule Type Limits Name
    Through: 12/31,           !- Field 1
    For: AllDays,             !- Field 2
    Until: 24:00,             !- Field 3
    1;                        !- Field 4

Schedule:Compact,
    HVACTemplate-Always 30,    !- Name
    HVACTemplate Any Number,    !- Schedule Type Limits Name
    Through: 12/31,           !- Field 1
    For: AllDays,             !- Field 2
    Until: 24:00,             !- Field 3
    30;                       !- Field 4

Schedule:Compact,
    HVACTemplate-Always 20,    !- Name
    HVACTemplate Any Number,    !- Schedule Type Limits Name
    Through: 12/31,           !- Field 1
    For: AllDays,             !- Field 2
    Until: 24:00,             !- Field 3
    20;                       !- Field 4

Schedule:Compact,
    Htg-SetP-Sch,             !- Name
    Temperature,              !- Schedule Type Limits Name
    Through: 12/31,           !- Field 1
    For: WeekDays CustomDay1 CustomDay2,    !- Field 2
    Until: 6:00,              !- Field 3
    15,                       !- Field 4
    Until: 7:00,              !- Field 5
    18.0,                     !- Field 6
    Until: 21:00,             !- Field 7
    23.0,                     !- Field 8
    Until: 24:00,             !- Field 9
    15,                       !- Field 10
    For: WeekEnds Holiday,    !- Field 11
    Until: 24:00,             !- Field 12
    15,                       !- Field 13
    For: SummerDesignDay,     !- Field 14
    Until: 24:00,             !- Field 15
    15,                       !- Field 16
    For: WinterDesignDay,     !- Field 17
    Until: 24:00,             !- Field 18
    23.0;                     !- Field 19

Schedule:Compact,
    Clg-SetP-Sch,             !- Name
    Temperature,              !- Schedule Type Limits Name
    Through: 12/31,           !- Field 1
    For: WeekDays CustomDay1 CustomDay2,    !- Field 2
    Until: 7:00,              !- Field 3
    30,                       !- Field 4
    Until: 21:00,             !- Field 5
    24.0,                     !- Field 6
    Until: 24:00,             !- Field 7
    30,                       !- Field 8
    For: WeekEnds Holiday,    !- Field 9
    Until: 24:00,             !- Field 10
    30,                       !- Field 11
    For: SummerDesignDay,     !- Field 12
    Until: 24:00,             !- Field 13
    24.0,                     !- Field 14
    For: WinterDesignDay,     !- Field 15
    Until: 24:00,             !- Field 16
    30;                       !- Field 17

Schedule:Compact,
    OCCUPY-1,                 !- Name
    Fraction,                 !- Schedule Type Limits Name
    Through: 12/31,           !- Field 1
    For: WeekDays SummerDesignDay CustomDay1 CustomDay2,    !- Field 2
    Until: 8:00,              !- Field 3
    0.0,                      !- Field 4
    Until: 11:00,             !- Field 5
    1.00,                     !- Field 6
    Until: 12:00,             !- Field 7
    0.80,                     !- Field 8
    Until: 13:00,             !- Field 9
    0.40,                     !- Field 10
    Until: 14:00,             !- Field 11
    0.80,                     !- Field 12
    Until: 18:00,             !- Field 13
    1.00,                     !- Field 14
    Until: 19:00,             !- Field 15
    0.50,                     !- Field 16
    Until: 21:00,             !- Field 17
    0.10,                     !- Field 18
    Until: 24:00,             !- Field 19
    0.0,                      !- Field 20
    For: Weekends WinterDesignDay Holiday,    !- Field 21
    Until: 24:00,             !- Field 22
    0.0;                      !- Field 23

Schedule:Compact,
    LIGHTS-1,                 !- Name
    Fraction,                 !- Schedule Type Limits Name
    Through: 12/31,           !- Field 1
    For: WeekDays SummerDesignDay CustomDay1 CustomDay2,    !- Field 2
    Until: 8:00,              !- Field 3
    0.05,                     !- Field 4
    Until: 9:00,              !- Field 5
    0.9,                      !- Field 6
    Until: 10:00,             !- Field 7
    0.95,                     !- Field 8
    Until: 11:00,             !- Field 9
    1.00,                     !- Field 10
    Until: 12:00,             !- Field 11
    0.95,                     !- Field 12
    Until: 13:00,             !- Field 13
    0.8,                      !- Field 14
    Until: 14:00,             !- Field 15
    0.9,                      !- Field 16
    Until: 18:00,             !- Field 17
    1.00,                     !- Field 18
    Until: 19:00,             !- Field 19
    0.60,                     !- Field 20
    Until: 21:00,             !- Field 21
    0.40,                     !- Field 22
    Until: 24:00,             !- Field 23
    0.05,                     !- Field 24
    For: Weekends WinterDesignDay Holiday,    !- Field 25
    Until: 24:00,             !- Field 26
    0.05;                     !- Field 27

Schedule:Compact,
    EQUIP-1,                  !- Name
    Fraction,                 !- Schedule Type Limits Name