!-Generator IDFEditor 1.51
!-Option SortedOrder UseSpecialFormat

!-NOTE: All comments with '!-' are ignored by the IDFEditor and are generated automatically.
!-      Use '!' comments if they need to be retained when using the IDFEditor.


!-   ===========  ALL OBJECTS IN CLASS: VERSION ===========

Version,22.1;

!-   ===========  ALL OBJECTS IN CLASS: SIMULATIONCONTROL ===========


SimulationControl,
    Yes,                     !- Do Zone Sizing Calculation
    Yes,                     !- Do System Sizing Calculation
    No,                      !- Do Plant Sizing Calculation
    No,                      !- Run Simulation for Sizing Periods
    Yes,                     !- Run Simulation for Weather File Run Periods
    No,                      !- Do HVAC Sizing Simulation for Sizing Periods
    1;                       !- Maximum Number of HVAC Sizing Simulation Passes


!-   ===========  ALL OBJECTS IN CLASS: BUILDING ===========

Building,
    Building,                !- Name
    55,                      !- North Axis {deg}
    City,                    !- Terrain
    0.04,                    !- Loads Convergence Tolerance Value {W}
    0.4,                     !- Temperature Convergence Tolerance Value {deltaC}
    FullExterior,            !- Solar Distribution
    100,                     !- Maximum Number of Warmup Days
    6;                       !- Minimum Number of Warmup Days


!-   ===========  ALL OBJECTS IN CLASS: SURFACECONVECTIONALGORITHM:INSIDE ===========

SurfaceConvectionAlgorithm:Inside,TARP;

!-   ===========  ALL OBJECTS IN CLASS: SURFACECONVECTIONALGORITHM:OUTSIDE ===========

SurfaceConvectionAlgorithm:Outside,TARP;

!-   ===========  ALL OBJECTS IN CLASS: HEATBALANCEALGORITHM ===========

HeatBalanceAlgorithm,ConductionTransferFunction;

!-   ===========  ALL OBJECTS IN CLASS: ZONEAIRCONTAMINANTBALANCE ===========

ZoneAirContaminantBalance,Yes,Outdoor CO2 Schedule;

!-   ===========  ALL OBJECTS IN CLASS: ZONECAPACITANCEMULTIPLIER:RESEARCHSPECIAL ===========

ZoneCapacitanceMultiplier:ResearchSpecial,capacity,,25,1,1,1;

!-   ===========  ALL OBJECTS IN CLASS: TIMESTEP ===========

Timestep,4;

!-   ===========  ALL OBJECTS IN CLASS: SITE:LOCATION ===========


Site:Location,
    Kotsoy_TD_NOR Design_Conditions,  !- Name
    62.98,                   !- Latitude {deg}
    10.56,                   !- Longitude {deg}
    1,                       !- Time Zone {hr}
    127;                     !- Elevation {m}


!-   ===========  ALL OBJECTS IN CLASS: SIZINGPERIOD:DESIGNDAY ===========

SizingPeriod:DesignDay,
    Kotsoy Ann Htg 99.6% Condns DB,  !- Name
    1,                       !- Month
    21,                      !- Day of Month
    WinterDesignDay,         !- Day Type
    -22.4,                   !- Maximum Dry-Bulb Temperature {C}
    0,                       !- Daily Dry-Bulb Temperature Range {deltaC}
    DefaultMultipliers,      !- Dry-Bulb Temperature Range Modifier Type
    ,                        !- Dry-Bulb Temperature Range Modifier Day Schedule Name
    Wetbulb,                 !- Humidity Condition Type
    -22.4,                   !- Wetbulb or DewPoint at Maximum Dry-Bulb {C}
    ,                        !- Humidity Condition Day Schedule Name
    ,                        !- Humidity Ratio at Maximum Dry-Bulb {kgWater/kgDryAir}
    ,                        !- Enthalpy at Maximum Dry-Bulb {J/kg}
    ,                        !- Daily Wet-Bulb Temperature Range {deltaC}
    99809,                   !- Barometric Pressure {Pa}
    1.3,                     !- Wind Speed {m/s}
    160,                     !- Wind Direction {deg}
    No,                      !- Rain Indicator
    No,                      !- Snow Indicator
    No,                      !- Daylight Saving Time Indicator
    ASHRAEClearSky,          !- Solar Model Indicator
    ,                        !- Beam Solar Day Schedule Name
    ,                        !- Diffuse Solar Day Schedule Name
    ,                        !- ASHRAE Clear Sky Optical Depth for Beam Irradiance (taub) {dimensionless}
    ,                        !- ASHRAE Clear Sky Optical Depth for Diffuse Irradiance (taud) {dimensionless}
    0;                       !- Sky Clearness

SizingPeriod:DesignDay,
    Kotsoy July .4% Condns DB=>MCWB,  !- Name
    7,                       !- Month
    21,                      !- Day of Month
    SummerDesignDay,         !- Day Type
    31.4,                    !- Maximum Dry-Bulb Temperature {C}
    10.4,                    !- Daily Dry-Bulb Temperature Range {deltaC}
    DefaultMultipliers,      !- Dry-Bulb Temperature Range Modifier Type
    ,                        !- Dry-Bulb Temperature Range Modifier Day Schedule Name
    Wetbulb,                 !- Humidity Condition Type
    19.5,                    !- Wetbulb or DewPoint at Maximum Dry-Bulb {C}
    ,                        !- Humidity Condition Day Schedule Name
    ,                        !- Humidity Ratio at Maximum Dry-Bulb {kgWater/kgDryAir}
    ,                        !- Enthalpy at Maximum Dry-Bulb {J/kg}
    ,                        !- Daily Wet-Bulb Temperature Range {deltaC}
    99809,                   !- Barometric Pressure {Pa}
    1.4,                     !- Wind Speed {m/s}
    160,                     !- Wind Direction {deg}
    No,                      !- Rain Indicator
    No,                      !- Snow Indicator
    No,                      !- Daylight Saving Time Indicator
    ASHRAETau,               !- Solar Model Indicator
    ,                        !- Beam Solar Day Schedule Name
    ,                        !- Diffuse Solar Day Schedule Name
    0.361,                   !- ASHRAE Clear Sky Optical Depth for Beam Irradiance (taub) {dimensionless}
    2.433;                   !- ASHRAE Clear Sky Optical Depth for Diffuse Irradiance (taud) {dimensionless}


!-   ===========  ALL OBJECTS IN CLASS: RUNPERIOD ===========

RunPeriod,
    Run Period 1,            !- Name
    1,                       !- Begin Month
    1,                       !- Begin Day of Month
    ,                        !- Begin Year
    12,                      !- End Month
    31,                      !- End Day of Month
    ,                        !- End Year
    Sunday,                  !- Day of Week for Start Day
    Yes,                     !- Use Weather File Holidays and Special Days
    Yes,                     !- Use Weather File Daylight Saving Period
    No,                      !- Apply Weekend Holiday Rule
    Yes,                     !- Use Weather File Rain Indicators
    Yes,                     !- Use Weather File Snow Indicators
    No;                      !- Treat Weather as Actual


!-   ===========  ALL OBJECTS IN CLASS: RUNPERIODCONTROL:SPECIALDAYS ===========

RunPeriodControl:SpecialDays,
    H6,                      !- Name
    24-Jan,                  !- Start Date
    1,                       !- Duration {days}
    Holiday;                 !- Special Day Type

RunPeriodControl:SpecialDays,
    H8,                      !- Name
    27-Jan,                  !- Start Date
    1,                       !- Duration {days}
    Holiday;                 !- Special Day Type

RunPeriodControl:SpecialDays,
    H10,                     !- Name
    2-Feb,                   !- Start Date
    1,                       !- Duration {days}
    Holiday;                 !- Special Day Type

RunPeriodControl:SpecialDays,
    H11,                     !- Name
    8-Feb,                   !- Start Date
    1,                       !- Duration {days}
    Holiday;                 !- Special Day Type

RunPeriodControl:SpecialDays,
    H19,                     !- Name
    9-Mar,                   !- Start Date
    1,                       !- Duration {days}
    Holiday;                 !- Special Day Type

RunPeriodControl:SpecialDays,
    H20,                     !- Name
    14-Mar,                  !- Start Date
    1,                       !- Duration {days}
    Holiday;                 !- Special Day Type

RunPeriodControl:SpecialDays,
    H23,                     !- Name
    25-Mar,                  !- Start Date
    1,                       !- Duration {days}
    Holiday;                 !- Special Day Type

RunPeriodControl:SpecialDays,
    H26,                     !- Name
    5-Apr,                   !- Start Date
    1,                       !- Duration {days}
    Holiday;                 !- Special Day Type

RunPeriodControl:SpecialDays,
    H35,                     !- Name
    2-May,                   !- Start Date
    1,                       !- Duration {days}
    Holiday;                 !- Special Day Type

RunPeriodControl:SpecialDays,
    H40,                     !- Name
    18-May,                  !- Start Date
    1,                       !- Duration {days}
    Holiday;                 !- Special Day Type

RunPeriodControl:SpecialDays,
    H41,                     !- Name
    23-May,                  !- Start Date
    1,                       !- Duration {days}
    Holiday;                 !- Special Day Type

RunPeriodControl:SpecialDays,
    H43,                     !- Name
    1-Jun,                   !- Start Date
    1,                       !- Duration {days}
    Holiday;                 !- Special Day Type

RunPeriodControl:SpecialDays,
    H49,                     !- Name
    16-Jun,                  !- Start Date
    1,                       !- Duration {days}
    Holiday;                 !- Special Day Type

RunPeriodControl:SpecialDays,
    H54,                     !- Name
    1-Jul,                   !- Start Date
    1,                       !- Duration {days}
    Holiday;                 !- Special Day Type

RunPeriodControl:SpecialDays,
    H65,                     !- Name
    11-Aug,                  !- Start Date
    1,                       !- Duration {days}
    Holiday;                 !- Special Day Type

RunPeriodControl:SpecialDays,
    H67,                     !- Name
    16-Aug,                  !- Start Date
    1,                       !- Duration {days}
    Holiday;                 !- Special Day Type

RunPeriodControl:SpecialDays,
    H68,                     !- Name
    19-Aug,                  !- Start Date
    1,                       !- Duration {days}
    Holiday;                 !- Special Day Type

RunPeriodControl:SpecialDays,
    H69,                     !- Name
    22-Aug,                  !- Start Date
    1,                       !- Duration {days}
    Holiday;                 !- Special Day Type

RunPeriodControl:SpecialDays,
    H70,                     !- Name
    5-Sep,                   !- Start Date
    1,                       !- Duration {days}
    Holiday;                 !- Special Day Type

RunPeriodControl:SpecialDays,
    H73,                     !- Name
    12-Sep,                  !- Start Date
    1,                       !- Duration {days}
    Holiday;                 !- Special Day Type

RunPeriodControl:SpecialDays,
    H77,                     !- Name
    22-Sep,                  !- Start Date
    1,                       !- Duration {days}
    Holiday;                 !- Special Day Type

RunPeriodControl:SpecialDays,
    H81,                     !- Name
    6-Oct,                   !- Start Date
    1,                       !- Duration {days}
    Holiday;                 !- Special Day Type

RunPeriodControl:SpecialDays,
    H85,                     !- Name
    28-Oct,                  !- Start Date
    1,                       !- Duration {days}
    Holiday;                 !- Special Day Type

RunPeriodControl:SpecialDays,
    H96,                     !- Name
    23-Dec,                  !- Start Date
    1,                       !- Duration {days}
    Holiday;                 !- Special Day Type

RunPeriodControl:SpecialDays,
    H97,                     !- Name
    26-Dec,                  !- Start Date
    1,                       !- Duration {days}
    Holiday;                 !- Special Day Type


!-   ===========  ALL OBJECTS IN CLASS: SCHEDULETYPELIMITS ===========

ScheduleTypeLimits,
    obFMU Fraction,          !- Name
    0,                       !- Lower Limit Value
    1,                       !- Upper Limit Value
    CONTINUOUS;              !- Numeric Type

ScheduleTypeLimits,
    obFMU Any Number;        !- Name

ScheduleTypeLimits,
    Any Number;              !- Name

ScheduleTypeLimits,
    Fraction,                !- Name
    -1,                      !- Lower Limit Value
    1,                       !- Upper Limit Value
    CONTINUOUS;              !- Numeric Type

ScheduleTypeLimits,
    Temperature,             !- Name
    -60,                     !- Lower Limit Value
    200,                     !- Upper Limit Value
    CONTINUOUS,              !- Numeric Type
    Temperature;             !- Unit Type

ScheduleTypeLimits,
    Control Type,            !- Name
    0,                       !- Lower Limit Value
    4,                       !- Upper Limit Value
    DISCRETE;                !- Numeric Type

ScheduleTypeLimits,
    On/Off,                  !- Name
    0,                       !- Lower Limit Value
    1,                       !- Upper Limit Value
    DISCRETE;                !- Numeric Type

ScheduleTypeLimits,
    HVACTemplate Any Number; !- Name


!-   ===========  ALL OBJECTS IN CLASS: SCHEDULE:COMPACT ===========

Schedule:Compact,
    Outdoor CO2 Schedule,    !- Name
    Any Number,              !- Schedule Type Limits Name
    Through: 12/31,          !- Field 1
    For: AllDays,            !- Field 2
    Until: 24:00, 400.0;     !- Field 4

Schedule:Compact,
    TWO,                     !- Name
    Any Number,              !- Schedule Type Limits Name
    Through: 12/31,          !- Field 1
    For: AllDays,            !- Field 2
    Until: 24:00, 2;         !- Field 4

Schedule:Compact,
    THREE,                   !- Name
    Any Number,              !- Schedule Type Limits Name
    Through: 12/31,          !- Field 1
    For: AllDays,            !- Field 2
    Until: 24:00, 3;         !- Field 4

Schedule:Compact,
    FOUR,                    !- Name
    Any Number,              !- Schedule Type Limits Name
    Through: 12/31,          !- Field 1
    For: AllDays,            !- Field 2
    Until: 24:00, 4;         !- Field 4

Schedule:Compact,
    ShadeTransSch,           !- Name
    Fraction,                !- Schedule Type Limits Name
    Through: 12/31,          !- Field 1
    For: AllDays,            !- Field 2
    Until: 24:00, 0.0;       !- Field 4

Schedule:Compact,
    Activity Sch,            !- Name
    Any Number,              !- Schedule Type Limits Name
    Through: 12/31,          !- Field 1
    For: AllDays,            !- Field 2
    Until: 24:00, 131.8;     !- Field 4

Schedule:Compact,
    BLDG Sch   1,            !- Name
    Any Number,              !- Schedule Type Limits Name
    Through: 12/31,          !- Field 1
    For: Weekdays SummerDesignDay WinterDesignDay,  !- Field 2
    Until: 6:00, 0.0,        !- Field 4
    Until: 7:00, 0.1,        !- Field 6
    Until: 8:00, 0.5,        !- Field 8
    Until: 12:00, 1.0,       !- Field 10
    Until: 13:00, 0.5,       !- Field 12
    Until: 16:00, 1.0,       !- Field 14
    Until: 17:00, 0.5,       !- Field 16
    Until: 18:00, 0.1,       !- Field 18
    Until: 24:00, 0.0,       !- Field 20
    For: AllOtherDays,       !- Field 21
    Until: 24:00, 0.0;       !- Field 23

Schedule:Compact,
    BLDG Sch   2,            !- Name
    Any Number,              !- Schedule Type Limits Name
    Through: 12/31,          !- Field 1
    For: Weekdays SummerDesignDay WinterDesignDay,  !- Field 2
    Until: 8:00, 0.0,        !- Field 4
    Until: 18:00, 1.0,       !- Field 6
    Until: 24:00, 0.0,       !- Field 8
    For: AllOtherDays,       !- Field 9
    Until: 24:00, 0.0;       !- Field 11

Schedule:Compact,
    BLDG Sch   3,            !- Name
    Any Number,              !- Schedule Type Limits Name
    Through: 12/31,          !- Field 1
    For: Weekdays SummerDesignDay WinterDesignDay,  !- Field 2
    Until: 6:00, 0.05,       !- Field 4
    Until: 7:00, 0.2,        !- Field 6
    Until: 18:00, 1.0,       !- Field 8
    Until: 19:00, 0.5,       !- Field 10
    Until: 24:00, 0.05,      !- Field 12
    For: AllOtherDays,       !- Field 13
    Until: 24:00, 0.05;      !- Field 15

Schedule:Compact,
    BLDGSch3_onoff,          !- Name
    Any Number,              !- Schedule Type Limits Name
    Through: 12/31,          !- Field 1
    For: Weekdays SummerDesignDay WinterDesignDay,  !- Field 2
    Until: 7:00, 0,          !- Field 4
    Until: 21:00, 1,         !- Field 6
    Until: 24:00, 0,         !- Field 8
    For: AllOtherDays,       !- Field 9
    Until: 24:00, 0;         !- Field 11

Schedule:Compact,
    ON,                      !- Name
    Fraction,                !- Schedule Type Limits Name
    Through: 12/31,          !- Field 1
    For: AllDays,            !- Field 2
    Until: 24:00, 1.0;       !- Field 4

Schedule:Compact,
    CW Loop Temp Schedule,   !- Name
    Temperature,             !- Schedule Type Limits Name
    Through: 12/31,          !- Field 1
    For: AllDays,            !- Field 2
    Until: 24:00, 6.67;      !- Field 4

Schedule:Compact,
    HW Loop Temp Schedule,   !- Name
    Temperature,             !- Schedule Type Limits Name
    Through: 12/31,          !- Field 1
    For: AllDays,            !- Field 2
    Until: 24:00, 60.0;      !- Field 4

Schedule:Compact,
    Heating Setpoints,       !- Name
    Temperature,             !- Schedule Type Limits Name
    Through: 12/31,          !- Field 1
    For: AllDays,            !- Field 2
    Until: 7:00, 19,         !- Field 4
    Until: 19:00, 21,        !- Field 6
    Until: 24:00, 19;        !- Field 8

Schedule:Compact,
    Cooling Setpoints,       !- Name
    Temperature,             !- Schedule Type Limits Name
    Through: 12/31,          !- Field 1
    For: AllDays,            !- Field 2
    Until: 6:00, 30.0,       !- Field 4
    Until: 19:00, 24.0,      !- Field 6
    Until: 24:00, 30.0;      !- Field 8

Schedule:Compact,
    Zone Control Type Sched, !- Name
    Control Type,            !- Schedule Type Limits Name
    Through: 3/31,           !- Field 1
    For: AllDays,            !- Field 2
    Until: 24:00, 1.0,       !- Field 4
    Through: 9/30,           !- Field 5
    For: AllDays,            !- Field 6
    Until: 24:00, 2.0,       !- Field 8
    Through: 12/31,          !- Field 9
    For: AllDays,            !- Field 10
    Until: 24:00, 1.0;       !- Field 12

Schedule:Compact,
    HVACTemplate-Always 4,   !- Name
    Any Number,              !- Schedule Type Limits Name
    Through: 12/31,          !- Field 1
    For: AllDays,            !- Field 2
    Until: 24:00, 4;         !- Field 4

Schedule:Compact,
    UnitVentMinOA,           !- Name
    Any Number,              !- Schedule Type Limits Name
    Through: 12/31,          !- Field 1
    For: AllDays,            !- Field 2
    Until: 24:00, 0.0;       !- Field 4

Schedule:Compact,
    UnitVentMaxOA,           !- Name
    Any Number,              !- Schedule Type Limits Name
    Through: 12/31,          !- Field 1
    For: AllDays,            !- Field 2
    Until: 24:00, 1.0;       !- Field 4

Schedule:Compact,
    HeatExchangerAvailSch,   !- Name
    Any Number,              !- Schedule Type Limits Name
    Through: 12/31,          !- Field 1
    For: AllDays,            !- Field 2
    Until: 24:00, 1;         !- Field 4

Schedule:Compact,
    Hybrid Control Mode Schedule,  !- Name
    Control Type,            !- Schedule Type Limits Name
    Through: 12/31,          !- Field 1
    For: AllDays,            !- Field 2
    Until:  7:00, 0,         !- Field 4
    Until: 17:00, 1,         !- Field 6
    Until: 18:00, 1,         !- Field 8
    Until: 19:00, 1,         !- Field 10
    Until: 24:00, 1;         !- Field 12

Schedule:Compact,
    Outdoor air Schedule,    !- Name
    Any Number,              !- Schedule Type Limits Name
    Through: 12/31,          !- Field 1
    For: AllDays,            !- Field 2
    Until:  7:00, 2.0,       !- Field 4
    Until: 19:00, 2.0,       !- Field 6
    Until: 24:00, 2.0;       !- Field 8

Schedule:Compact,
    SimpleControlTypeSch,    !- Name
    On/Off,                  !- Schedule Type Limits Name
    Through: 12/31,          !- Field 1
    For: AllDays,            !- Field 2
    Until:  7:00, 0.0,       !- Field 4
    Until: 19:00, 1.0,       !- Field 6
    Until: 24:00, 0.0;       !- Field 8

Schedule:Compact,
    NUM45,                   !- Name
    Any Number,              !- Schedule Type Limits Name
    Through: 12/31,          !- Field 1
    For: AllDays,            !- Field 2
    Until: 24:00, 45;        !- Field 4

Schedule:Compact,
    TstWeek,                 !- Name
    Any Number,              !- Schedule Type Limits Name
    Through: 12/31,          !- Field 1
    For: Sunday,             !- Field 2
    Until: 24:00, 0,         !- Field 4
    For: Monday,             !- Field 5
    Until: 24:00, 1,         !- Field 7
    For: Tuesday,            !- Field 8
    Until: 24:00, 2,         !- Field 10
    For: Wednesday,          !- Field 11
    Until: 24:00, 3,         !- Field 13
    For: Thursday,           !- Field 14
    Until: 24:00, 4,         !- Field 16
    For: Friday,             !- Field 17
    Until: 24:00, 5,         !- Field 19
    For: Saturday,           !- Field 20
    Until: 24:00, 6,         !- Field 22
    For: Holiday,            !- Field 23
    Until: 24:00, 7;         !- Field 25

Schedule:Compact,
    HOLIDAY_ON_OFF,          !- Name
    Fraction,                !- Schedule Type Limits Name
    Through: 12/31,          !- Field 1
    For: AllDays,            !- Field 2
    Until: 24:00, 1.0;       !- Field 4

Schedule:Compact,
    OCC_ON_OFF,              !- Name
    Fraction,                !- Schedule Type Limits Name
    Through: 12/31,          !- Field 1
    For: AllDays,            !- Field 2
    Until: 24:00, 1.0;       !- Field 4

Schedule:Compact,
    ON_at12,                 !- Name
    Fraction,                !- Schedule Type Limits Name
    Through: 12/31,          !- Field 1
    For: AllDays,            !- Field 2
    Until: 12:00, 0,         !- Field 4
    Until: 12:30, 1,         !- Field 6
    Until: 24:00, 0;         !- Field 8

Schedule:Compact,
    notOCC_ON_OFF,           !- Name
    Fraction,                !- Schedule Type Limits Name
    Through: 12/31,          !- Field 1
    For: AllDays,            !- Field 2
    Until: 24:00, 1.0;       !- Field 4

Schedule:Compact,
    HVACTemplate-Always 1,   !- Name
    HVACTemplate Any Number, !- Schedule Type Limits Name
    Through: 12/31,          !- Field 1
    For: AllDays,            !- Field 2
    Until: 24:00, 1;         !- Field 4

Schedule:Compact,
    HVACTemplate-Always 30,  !- Name
    HVACTemplate Any Number, !- Schedule Type Limits Name
    Through: 12/31,          !- Field 1
    For: AllDays,            !- Field 2
    Until: 24:00, 30;        !- Field 4

Schedule:Compact,
    HVACTemplate-Always 20,  !- Name
    HVACTemplate Any Number, !- Schedule Type Limits Name
    Through: 12/31,          !- Field 1
    For: AllDays,            !- Field 2
    Until: 24:00, 20;        !- Field 4

Schedule:Compact,
    Htg-SetP-Sch,            !- Name
    Temperature,             !- Schedule Type Limits Name
    Through: 12/31,          !- Field 1
    For: WeekDays CustomDay1 CustomDay2,  !- Field 2
    Until: 6:00, 15,         !- Field 4
    Until: 7:00, 18.0,       !- Field 6
    Until: 21:00, 23.0,      !- Field 8
    Until: 24:00, 15,        !- Field 10
    For: WeekEnds Holiday,   !- Field 11
    Until: 24:00, 15,        !- Field 13
    For: SummerDesignDay,    !- Field 14
    Until: 24:00, 15,        !- Field 16
    For: WinterDesignDay,    !- Field 17
    Until: 24:00, 23.0;      !- Field 19

Schedule:Compact,
    Clg-SetP-Sch,            !- Name
    Temperature,             !- Schedule Type Limits Name
    Through: 12/31,          !- Field 1
    For: WeekDays CustomDay1 CustomDay2,  !- Field 2
    Until: 7:00, 30,         !- Field 4
    Until: 21:00, 24.0,      !- Field 6
    Until: 24:00, 30,        !- Field 8
    For: WeekEnds Holiday,   !- Field 9
    Until: 24:00, 30,        !- Field 11
    For: SummerDesignDay,    !- Field 12
    Until: 24:00, 24.0,      !- Field 14
    For: WinterDesignDay,    !- Field 15
    Until: 24:00, 30;        !- Field 17

Schedule:Compact,
    OCCUPY-1,                !- Name
    Fraction,                !- Schedule Type Limits Name
    Through: 12/31,          !- Field 1
    For: WeekDays SummerDesignDay CustomDay1 CustomDay2,  !- Field 2
    Until: 8:00, 0.0,        !- Field 4
    Until: 11:00, 1.00,      !- Field 6
    Until: 12:00, 0.80,      !- Field 8
    Until: 13:00, 0.40,      !- Field 10
    Until: 14:00, 0.80,      !- Field 12
    Until: 18:00, 1.00,      !- Field 14
    Until: 19:00, 0.50,      !- Field 16
    Until: 21:00, 0.10,      !- Field 18
    Until: 24:00, 0.0,       !- Field 20
    For: Weekends WinterDesignDay Holiday,  !- Field 21
    Until: 24:00, 0.0;       !- Field 23

Schedule:Compact,
    LIGHTS-1,                !- Name
    Fraction,                !- Schedule Type Limits Name
    Through: 12/31,          !- Field 1
    For: WeekDays SummerDesignDay CustomDay1 CustomDay2,  !- Field 2
    Until: 8:00, 0.05,       !- Field 4
    Until: 9:00, 0.9,        !- Field 6
    Until: 10:00, 0.95,      !- Field 8
    Until: 11:00, 1.00,      !- Field 10
    Until: 12:00, 0.95,      !- Field 12
    Until: 13:00, 0.8,       !- Field 14
    Until: 14:00, 0.9,       !- Field 16
    Until: 18:00, 1.00,      !- Field 18
    Until: 19:00, 0.60,      !- Field 20
    Until: 21:00, 0.40,      !- Field 22
    Until: 24:00, 0.05,      !- Field 24
    For: Weekends WinterDesignDay Holiday,  !- Field 25
    Until: 24:00, 0.05;      !- Field 27

Schedule:Compact,
    EQUIP-1,                 !- Name
    Fraction,                !- Schedule Type Limits Name
    Through: 12/31,          !- Field 1
    For: WeekDays SummerDesignDay CustomDay1 CustomDay2,  !- Field 2
    Until: 8:00, 0.02,       !- Field 4
    Until: 9:00, 0.4,        !- Field 6
    Until: 14:00, 0.9,       !- Field 8
    Until: 15:00, 0.8,       !- Field 10
    Until: 16:00, 0.7,       !- Field 12
    Until: 18:00, 0.5,       !- Field 14
    Until: 21:00, 0.3,       !- Field 16
    Until: 24:00, 0.02,      !- Field 18
    For: Weekends WinterDesignDay Holiday,  !- Field 19
    Until: 24:00, 0.02;      !- Field 21

Schedule:Compact,
    Seasonal Reset Supply Air Temp Sch,  !- Name
    Temperature,             !- Schedule Type Limits Name
    Through: 3/31,           !- Field 1
    For: AllDays,            !- Field 2
    Until: 24:00, 16.0,      !- Field 4
    Through: 9/30,           !- Field 5
    For: AllDays,            !- Field 6
    Until: 24:00, 13.0,      !- Field 8
    Through: 12/31,          !- Field 9
    For: AllDays,            !- Field 10
    Until: 24:00, 16.0;      !- Field 12

Schedule:Compact,
    OA CCoil SPM,            !- Name
    Any Number,              !- Schedule Type Limits Name
    Through: 12/31,          !- Field 1
    For: AllDays,            !- Field 2
    Until: 24:00, 25.0;      !- Field 4

Schedule:Compact,
    OA HCoil SPM,            !- Name
    Any Number,              !- Schedule Type Limits Name
    Through: 12/31,          !- Field 1
    For: AllDays,            !- Field 2
    Until: 24:00, 20.0;      !- Field 4

Schedule:Compact,
    OFF,                     !- Name
    Any Number,              !- Schedule Type Limits Name
    Through: 12/31,          !- Field 1
    For: AllDays,            !- Field 2
    Until: 24:00, 0;         !- Field 4

Schedule:Compact,
    Zone_thermostat_1,       !- Name
    Temperature,             !- Schedule Type Limits Name
    Through: 12/31,          !- Field 1
    For: WeekDays CustomDay1 CustomDay2,  !- Field 2
    Until: 24:00, 4,         !- Field 4
    For: WeekEnds Holiday,   !- Field 5
    Until: 24:00, 4,         !- Field 7
    For: SummerDesignDay,    !- Field 8
    Until: 24:00, 4,         !- Field 10
    For: WinterDesignDay,    !- Field 11
    Until: 24:00, 4;         !- Field 13

Schedule:Compact,
    Zone_thermostat_2,       !- Name
    Temperature,             !- Schedule Type Limits Name
    Through: 12/31,          !- Field 1
    For: WeekDays CustomDay1 CustomDay2,  !- Field 2
    Until: 24:00, 4,         !- Field 4
    For: WeekEnds Holiday,   !- Field 5
    Until: 24:00, 4,         !- Field 7
    For: SummerDesignDay,    !- Field 8
    Until: 24:00, 4,         !- Field 10
    For: WinterDesignDay,    !- Field 11
    Until: 24:00, 4;         !- Field 13

Schedule:Compact,
    Zone_thermostat_3,       !- Name
    Temperature,             !- Schedule Type Limits Name
    Through: 12/31,          !- Field 1
    For: WeekDays CustomDay1 CustomDay2,  !- Field 2
    Until: 24:00, 4,         !- Field 4
    For: WeekEnds Holiday,   !- Field 5
    Until: 24:00, 4,         !- Field 7
    For: SummerDesignDay,    !- Field 8
    Until: 24:00, 4,         !- Field 10
    For: WinterDesignDay,    !- Field 11
    Until: 24:00, 4;         !- Field 13

Schedule:Compact,
    Zone_thermostat_4,       !- Name
    Temperature,             !- Schedule Type Limits Name
    Through: 12/31,          !- Field 1
    For: WeekDays CustomDay1 CustomDay2,  !- Field 2
    Until: 24:00, 4,         !- Field 4
    For: WeekEnds Holiday,   !- Field 5
    Until: 24:00, 4,         !- Field 7
    For: SummerDesignDay,    !- Field 8
    Until: 24:00, 4,         !- Field 10
    For: WinterDesignDay,    !- Field 11
    Until: 24:00, 4;         !- Field 13

Schedule:Compact,
    Zone_thermostat_5,       !- Name
    Temperature,             !- Schedule Type Limits Name
    Through: 12/31,          !- Field 1
    For: WeekDays CustomDay1 CustomDay2,  !- Field 2
    Until: 24:00, 4,         !- Field 4